11
Energy =
C     0.0000000    1.1955475    0.1591536 
C     0.0000000    0.0000000   -0.8095231 
C     0.0000000   -1.1955475    0.1591536 
N     0.0000000   -0.6147607    1.5357795 
N     0.0000000    0.6147607    1.5357795 
H    -0.8790141    1.8382622    0.0805604 
H     0.8790141    1.8382622    0.0805604 
H    -0.8801214    0.0000000   -1.4512923 
H     0.8801214    0.0000000   -1.4512923 
H     0.8790141   -1.8382622    0.0805604 
H    -0.8790141   -1.8382622    0.0805604 
